data/dss_files/Rede_teste.dss
Set DefaultBaseFrequency=60 

!! Equivalente de Thèvenin 
New Circuit.ModelagemTeste bus1=bus_650.1.2.3.4 basekV=0.22 

!! Dados dos cabos e multiplex_120mm2_abcn das linhas
New WireData.ca-120mm2-xlpe-1kv Rdc=0.253 Runits=km GMRac=0.52890 GMRunits=cm Radunits=cm NormAmps=229 Diam=1.29 
New WireData.ca-70mm2-1kv Rdc=0.443 Runits=km GMRac=0.39975 GMRunits=cm Radunits=cm NormAmps=157 Diam=0.975 

!!! Dados de multiplex_120mm2_abcn das linhas
New LineGeometry.multiplex_120mm2_abcn Nconds=4 
 ~ Cond=1 Wire=ca-120mm2-xlpe-1kv X=0 H=901.427 Units=cm 
 ~ Cond=2 Wire=ca-120mm2-xlpe-1kv X=1.41211 H=900.203 Units=cm 
 ~ Cond=3 Wire=ca-120mm2-xlpe-1kv X=0.401879 H=898.631 Units=cm 
 ~ Cond=4 Wire=ca-70mm2-1kv X=0 H=900 Units=cm 
 ~  Reduce=n 

!! Linhas
New Line.Line_650632 Bus1=bus_650.1.2.3.4 Bus2=bus_632.1.2.3.4 Length=0.0381091 Geometry=multiplex_120mm2_abcn Units=km
New Line.Line_632633 Bus1=bus_632.1.2.3.4 Bus2=bus_633.1.2.3.4 Length=0.0410325 Geometry=multiplex_120mm2_abcn Units=km 
New Line.Line_632645 Bus1=bus_632.1.2.3.4 Bus2=bus_645.1.2.3.4 Length=0.0345699 Geometry=multiplex_120mm2_abcn Units=km 
New Line.Line_645646 Bus1=bus_645.1.2.3.4 Bus2=bus_646.1.2.3.4 Length=0.0298908 Geometry=multiplex_120mm2_abcn Units=km 
New Line.Line_632670 Bus1=bus_632.1.2.3.4 Bus2=bus_670.1.2.3.4 Length=0.0280015 Geometry=multiplex_120mm2_abcn Units=km 
New Line.Line_670671 Bus1=bus_670.1.2.3.4 Bus2=bus_671.1.2.3.4 Length=0.0406474 Geometry=multiplex_120mm2_abcn Units=km 
New Line.Line_671680 Bus1=bus_671.1.2.3.4 Bus2=bus_680.1.2.3.4 Length=0.0241134 Geometry=multiplex_120mm2_abcn Units=km 
New Line.Line_671692 Bus1=bus_671.1.2.3.4 Bus2=bus_692.1.2.3.4 Length=0.0209642 Geometry=multiplex_120mm2_abcn Units=km 
New Line.Line_692675 Bus1=bus_692.1.2.3.4 Bus2=bus_675.1.2.3.4 Length=0.0319177 Geometry=multiplex_120mm2_abcn Units=km 
New Line.Line_671684 Bus1=bus_671.1.2.3.4 Bus2=bus_684.1.2.3.4 Length=0.0229642 Geometry=multiplex_120mm2_abcn Units=km 
New Line.Line_684652 Bus1=bus_684.1.2.3.4 Bus2=bus_652.1.2.3.4 Length=0.0180142 Geometry=multiplex_120mm2_abcn Units=km 
New Line.Line_684611 Bus1=bus_684.1.2.3.4 Bus2=bus_611.1.2.3.4 Length=0.0200142 Geometry=multiplex_120mm2_abcn Units=km 


!! Outras informações
MakeBusList
Set VoltageBases = [.22]
CalcVoltageBases

Set maxiterations = 500
set mode=snap
!! Solve
